pglib_opf_case73_ieee_rts/pglib_opf_case73_ieee_rts_2regions.m
% -------------------------------------------------------------------------
% Partitioned MATPOWER Case File
% Copyright (c) 2025 Milad Hasanzadeh
% Generated on: 2025-06-21
% This file contains partitioned data for 2 regions


% -------------------- mpc_regionR1 --------------------

mpc_regionR1.version = '2';
mpc_regionR1.baseMVA = 100.0000;
mpc_regionR1.bus = [
%	bus_i       type        Pd          Qd          Gs          Bs          area        Vm          Va          baseKV      zone        Vmax        Vmin        
	 1	 2	 108	 22	 0	 0	 3	 1	 0	 138	 3	 1.05	 0.95;
	 2	 2	 97	 20	 0	 0	 3	 1	 0	 138	 3	 1.05	 0.95;
	 3	 1	 180	 37	 0	 0	 3	 1	 0	 138	 3	 1.05	 0.95;
	 4	 1	 74	 15	 0	 0	 3	 1	 0	 138	 3	 1.05	 0.95;
	 5	 1	 71	 14	 0	 0	 3	 1	 0	 138	 3	 1.05	 0.95;
	 6	 1	 136	 28	 0	-100	 3	 1	 0	 138	 3	 1.05	 0.95;
	 7	 2	 125	 25	 0	 0	 3	 1	 0	 138	 3	 1.05	 0.95;
	 8	 1	 171	 35	 0	 0	 3	 1	 0	 138	 3	 1.05	 0.95;
	 9	 1	 175	 36	 0	 0	 3	 1	 0	 138	 3	 1.05	 0.95;
	 10	 1	 195	 40	 0	 0	 3	 1	 0	 138	 3	 1.05	 0.95;
	 11	 1	 0	 0	 0	 0	 3	 1	 0	 230	 3	 1.05	 0.95;
	 12	 1	 0	 0	 0	 0	 3	 1	 0	 230	 3	 1.05	 0.95;
	 13	 2	 265	 54	 0	 0	 3	 1	 0	 230	 3	 1.05	 0.95;
	 14	 2	 194	 39	 0	 0	 3	 1	 0	 230	 3	 1.05	 0.95;
	 15	 2	 317	 64	 0	 0	 3	 1	 0	 230	 3	 1.05	 0.95;
	 16	 2	 100	 20	 0	 0	 3	 1	 0	 230	 3	 1.05	 0.95;
	 17	 1	 0	 0	 0	 0	 3	 1	 0	 230	 3	 1.05	 0.95;
	 18	 2	 333	 68	 0	 0	 3	 1	 0	 230	 3	 1.05	 0.95;
	 19	 1	 181	 37	 0	 0	 3	 1	 0	 230	 3	 1.05	 0.95;
	 20	 1	 128	 26	 0	 0	 3	 1	 0	 230	 3	 1.05	 0.95;
	 21	 2	 0	 0	 0	 0	 3	 1	 0	 230	 3	 1.05	 0.95;
	 22	 2	 0	 0	 0	 0	 3	 1	 0	 230	 3	 1.05	 0.95;
	 23	 2	 0	 0	 0	 0	 3	 1	 0	 230	 3	 1.05	 0.95;
	 24	 1	 0	 0	 0	 0	 3	 1	 0	 230	 3	 1.05	 0.95;
	 25	 1	 0	 0	 0	 0	 3	 1	 0	 230	 3	 1.05	 0.95;
];

mpc_regionR1.gen = [
%	bus         Pg          Qg          Qmax        Qmin        Vg          mBase       status      Pmax        Pmin        Pc1         Pc2         Qc1min      Qc1max      Qc2min      Qc2max      ramp_agc    ramp_10     ramp_30     ramp_q      apf         
	 1	 18	 5	 10	 0	 1	 100	 1	 20	 16;
	 1	 18	 5	 10	 0	 1	 100	 1	 20	 16;
	 1	 45.6	 2.5	 30	-25	 1	 100	 1	 76	 15.2;
	 1	 45.6	 2.5	 30	-25	 1	 100	 1	 76	 15.2;
	 2	 18	 5	 10	 0	 1	 100	 1	 20	 16;
	 2	 18	 5	 10	 0	 1	 100	 1	 20	 16;
	 2	 45.6	 2.5	 30	-25	 1	 100	 1	 76	 15.2;
	 2	 45.6	 2.5	 30	-25	 1	 100	 1	 76	 15.2;
	 7	 62.5	 30	 60	 0	 1	 100	 1	 100	 25;
	 7	 62.5	 30	 60	 0	 1	 100	 1	 100	 25;
	 7	 62.5	 30	 60	 0	 1	 100	 1	 100	 25;
	 13	 133	 40	 80	 0	 1	 100	 1	 197	 69;
	 13	 133	 40	 80	 0	 1	 100	 1	 197	 69;
	 13	 133	 40	 80	 0	 1	 100	 1	 197	 69;
	 14	 0	 75	 200	-50	 1	 100	 1	 0	 0;
	 15	 7.2	 3	 6	 0	 1	 100	 1	 12	 2.4;
	 15	 7.2	 3	 6	 0	 1	 100	 1	 12	 2.4;
	 15	 7.2	 3	 6	 0	 1	 100	 1	 12	 2.4;
	 15	 7.2	 3	 6	 0	 1	 100	 1	 12	 2.4;
	 15	 7.2	 3	 6	 0	 1	 100	 1	 12	 2.4;
	 15	 104.65	 15	 80	-50	 1	 100	 1	 155	 54.3;
	 16	 104.65	 15	 80	-50	 1	 100	 1	 155	 54.3;
	 18	 250	 75	 200	-50	 1	 100	 1	 400	 100;
	 21	 250	 75	 200	-50	 1	 100	 1	 400	 100;
	 22	 30	 3	 16	-10	 1	 100	 1	 50	 10;
	 22	 30	 3	 16	-10	 1	 100	 1	 50	 10;
	 22	 30	 3	 16	-10	 1	 100	 1	 50	 10;
	 22	 30	 3	 16	-10	 1	 100	 1	 50	 10;
	 22	 30	 3	 16	-10	 1	 100	 1	 50	 10;
	 22	 30	 3	 16	-10	 1	 100	 1	 50	 10;
	 23	 104.65	 15	 80	-50	 1	 100	 1	 155	 54.3;
	 23	 104.65	 15	 80	-50	 1	 100	 1	 155	 54.3;
	 23	 245	 62.5	 150	-25	 1	 100	 1	 350	 140;
];

mpc_regionR1.branch = [
%	fbus        tbus        r           x           b           rateA       rateB       rateC       ratio       angle       status      angmin      angmax      
	 1	 2	 0.003	 0.014	 0.461	 175	 193	 200	 0	 0	 1	-30	 30;
	 1	 3	 0.055	 0.211	 0.057	 175	 208	 220	 0	 0	 1	-30	 30;
	 1	 5	 0.022	 0.085	 0.023	 175	 208	 220	 0	 0	 1	-30	 30;
	 2	 4	 0.033	 0.127	 0.034	 175	 208	 220	 0	 0	 1	-30	 30;
	 2	 6	 0.05	 0.192	 0.052	 175	 208	 220	 0	 0	 1	-30	 30;
	 3	 9	 0.031	 0.119	 0.032	 175	 208	 220	 0	 0	 1	-30	 30;
	 3	 24	 0.002	 0.084	 0	 400	 510	 600	 1.015	 0	 1	-30	 30;
	 4	 9	 0.027	 0.104	 0.028	 175	 208	 220	 0	 0	 1	-30	 30;
	 5	 10	 0.023	 0.088	 0.024	 175	 208	 220	 0	 0	 1	-30	 30;
	 6	 10	 0.014	 0.061	 2.459	 175	 193	 200	 0	 0	 1	-30	 30;
	 7	 8	 0.016	 0.061	 0.017	 175	 208	 220	 0	 0	 1	-30	 30;
	 8	 9	 0.043	 0.165	 0.045	 175	 208	 220	 0	 0	 1	-30	 30;
	 8	 10	 0.043	 0.165	 0.045	 175	 208	 220	 0	 0	 1	-30	 30;
	 9	 11	 0.002	 0.084	 0	 400	 510	 600	 1.03	 0	 1	-30	 30;
	 9	 12	 0.002	 0.084	 0	 400	 510	 600	 1.03	 0	 1	-30	 30;
	 10	 11	 0.002	 0.084	 0	 400	 510	 600	 1.015	 0	 1	-30	 30;
	 10	 12	 0.002	 0.084	 0	 400	 510	 600	 1.015	 0	 1	-30	 30;
	 11	 13	 0.006	 0.048	 0.1	 500	 600	 625	 0	 0	 1	-30	 30;
	 11	 14	 0.005	 0.042	 0.088	 500	 600	 625	 0	 0	 1	-30	 30;
	 12	 13	 0.006	 0.048	 0.1	 500	 600	 625	 0	 0	 1	-30	 30;
	 12	 23	 0.012	 0.097	 0.203	 500	 600	 625	 0	 0	 1	-30	 30;
	 13	 23	 0.011	 0.087	 0.182	 500	 600	 625	 0	 0	 1	-30	 30;
	 14	 16	 0.005	 0.059	 0.082	 500	 600	 625	 0	 0	 1	-30	 30;
	 15	 16	 0.002	 0.017	 0.036	 500	 600	 625	 0	 0	 1	-30	 30;
	 15	 21	 0.006	 0.049	 0.103	 500	 600	 625	 0	 0	 1	-30	 30;
	 15	 21	 0.006	 0.049	 0.103	 500	 600	 625	 0	 0	 1	-30	 30;
	 15	 24	 0.007	 0.052	 0.109	 500	 600	 625	 0	 0	 1	-30	 30;
	 16	 17	 0.003	 0.026	 0.055	 500	 600	 625	 0	 0	 1	-30	 30;
	 16	 19	 0.003	 0.023	 0.049	 500	 600	 625	 0	 0	 1	-30	 30;
	 17	 18	 0.002	 0.014	 0.03	 500	 600	 625	 0	 0	 1	-30	 30;
	 17	 22	 0.014	 0.105	 0.221	 500	 600	 625	 0	 0	 1	-30	 30;
	 18	 21	 0.003	 0.026	 0.055	 500	 600	 625	 0	 0	 1	-30	 30;
	 18	 21	 0.003	 0.026	 0.055	 500	 600	 625	 0	 0	 1	-30	 30;
	 19	 20	 0.005	 0.04	 0.083	 500	 600	 625	 0	 0	 1	-30	 30;
	 19	 20	 0.005	 0.04	 0.083	 500	 600	 625	 0	 0	 1	-30	 30;
	 20	 23	 0.003	 0.022	 0.046	 500	 600	 625	 0	 0	 1	-30	 30;
	 20	 23	 0.003	 0.022	 0.046	 500	 600	 625	 0	 0	 1	-30	 30;
	 21	 22	 0.009	 0.068	 0.142	 500	 600	 625	 0	 0	 1	-30	 30;
	 23	 25	 0	 0.009	 0	 722	 893	 893	 0	 0	 1	-30	 30;
];

mpc_regionR1.gencost = [
%	2           startup     shutdown    n           c(n-1)...c0 
	 2	 1500	 0	 3	 0	 130	 400.6849;
	 2	 1500	 0	 3	 0	 130	 400.6849;
	 2	 1500	 0	 3	 0.014142	 16.0811	 212.3076;
	 2	 1500	 0	 3	 0.014142	 16.0811	 212.3076;
	 2	 1500	 0	 3	 0	 130	 400.6849;
	 2	 1500	 0	 3	 0	 130	 400.6849;
	 2	 1500	 0	 3	 0.014142	 16.0811	 212.3076;
	 2	 1500	 0	 3	 0.014142	 16.0811	 212.3076;
	 2	 1500	 0	 3	 0.052672	 43.6615	 781.521;
	 2	 1500	 0	 3	 0.052672	 43.6615	 781.521;
	 2	 1500	 0	 3	 0.052672	 43.6615	 781.521;
	 2	 1500	 0	 3	 0.00717	 48.5804	 832.7575;
	 2	 1500	 0	 3	 0.00717	 48.5804	 832.7575;
	 2	 1500	 0	 3	 0.00717	 48.5804	 832.7575;
	 2	 1500	 0	 3	 0	 0	 0;
	 2	 1500	 0	 3	 0.328412	 56.564	 86.3852;
	 2	 1500	 0	 3	 0.328412	 56.564	 86.3852;
	 2	 1500	 0	 3	 0.328412	 56.564	 86.3852;
	 2	 1500	 0	 3	 0.328412	 56.564	 86.3852;
	 2	 1500	 0	 3	 0.328412	 56.564	 86.3852;
	 2	 1500	 0	 3	 0.008342	 12.3883	 382.2391;
	 2	 1500	 0	 3	 0.008342	 12.3883	 382.2391;
	 2	 1500	 0	 3	 0.000213	 4.4231	 395.3749;
	 2	 1500	 0	 3	 0.000213	 4.4231	 395.3749;
	 2	 1500	 0	 3	 0	 0.001	 0.001;
	 2	 1500	 0	 3	 0	 0.001	 0.001;
	 2	 1500	 0	 3	 0	 0.001	 0.001;
	 2	 1500	 0	 3	 0	 0.001	 0.001;
	 2	 1500	 0	 3	 0	 0.001	 0.001;
	 2	 1500	 0	 3	 0	 0.001	 0.001;
	 2	 1500	 0	 3	 0.008342	 12.3883	 382.2391;
	 2	 1500	 0	 3	 0.008342	 12.3883	 382.2391;
	 2	 1500	 0	 3	 0.004895	 11.8495	 665.1094;
];


% -------------------- mpc_regionR2 --------------------

mpc_regionR2.version = '2';
mpc_regionR2.baseMVA = 100.0000;
mpc_regionR2.bus = [
%	bus_i       type        Pd          Qd          Gs          Bs          area        Vm          Va          baseKV      zone        Vmax        Vmin        
	 1	 2	 108	 22	 0	 0	 1	 1	 0	 138	 1	 1.05	 0.95;
	 2	 2	 97	 20	 0	 0	 1	 1	 0	 138	 1	 1.05	 0.95;
	 3	 1	 180	 37	 0	 0	 1	 1	 0	 138	 1	 1.05	 0.95;
	 4	 1	 74	 15	 0	 0	 1	 1	 0	 138	 1	 1.05	 0.95;
	 5	 1	 71	 14	 0	 0	 1	 1	 0	 138	 1	 1.05	 0.95;
	 6	 1	 136	 28	 0	-100	 1	 1	 0	 138	 1	 1.05	 0.95;
	 7	 2	 125	 25	 0	 0	 1	 1	 0	 138	 1	 1.05	 0.95;
	 8	 1	 171	 35	 0	 0	 1	 1	 0	 138	 1	 1.05	 0.95;
	 9	 1	 175	 36	 0	 0	 1	 1	 0	 138	 1	 1.05	 0.95;
	 10	 1	 195	 40	 0	 0	 1	 1	 0	 138	 1	 1.05	 0.95;
	 11	 1	 0	 0	 0	 0	 1	 1	 0	 230	 1	 1.05	 0.95;
	 12	 1	 0	 0	 0	 0	 1	 1	 0	 230	 1	 1.05	 0.95;
	 13	 3	 265	 54	 0	 0	 1	 1	 0	 230	 1	 1.05	 0.95;
	 14	 2	 194	 39	 0	 0	 1	 1	 0	 230	 1	 1.05	 0.95;
	 15	 2	 317	 64	 0	 0	 1	 1	 0	 230	 1	 1.05	 0.95;
	 16	 2	 100	 20	 0	 0	 1	 1	 0	 230	 1	 1.05	 0.95;
	 17	 1	 0	 0	 0	 0	 1	 1	 0	 230	 1	 1.05	 0.95;
	 18	 2	 333	 68	 0	 0	 1	 1	 0	 230	 1	 1.05	 0.95;
	 19	 1	 181	 37	 0	 0	 1	 1	 0	 230	 1	 1.05	 0.95;
	 20	 1	 128	 26	 0	 0	 1	 1	 0	 230	 1	 1.05	 0.95;
	 21	 2	 0	 0	 0	 0	 1	 1	 0	 230	 1	 1.05	 0.95;
	 22	 2	 0	 0	 0	 0	 1	 1	 0	 230	 1	 1.05	 0.95;
	 23	 2	 0	 0	 0	 0	 1	 1	 0	 230	 1	 1.05	 0.95;
	 24	 1	 0	 0	 0	 0	 1	 1	 0	 230	 1	 1.05	 0.95;
	 25	 2	 108	 22	 0	 0	 2	 1	 0	 138	 2	 1.05	 0.95;
	 26	 2	 97	 20	 0	 0	 2	 1	 0	 138	 2	 1.05	 0.95;
	 27	 1	 180	 37	 0	 0	 2	 1	 0	 138	 2	 1.05	 0.95;
	 28	 1	 74	 15	 0	 0	 2	 1	 0	 138	 2	 1.05	 0.95;
	 29	 1	 71	 14	 0	 0	 2	 1	 0	 138	 2	 1.05	 0.95;
	 30	 1	 136	 28	 0	-100	 2	 1	 0	 138	 2	 1.05	 0.95;
	 31	 2	 125	 25	 0	 0	 2	 1	 0	 138	 2	 1.05	 0.95;
	 32	 1	 171	 35	 0	 0	 2	 1	 0	 138	 2	 1.05	 0.95;
	 33	 1	 175	 36	 0	 0	 2	 1	 0	 138	 2	 1.05	 0.95;
	 34	 1	 195	 40	 0	 0	 2	 1	 0	 138	 2	 1.05	 0.95;
	 35	 1	 0	 0	 0	 0	 2	 1	 0	 230	 2	 1.05	 0.95;
	 36	 1	 0	 0	 0	 0	 2	 1	 0	 230	 2	 1.05	 0.95;
	 37	 2	 265	 54	 0	 0	 2	 1	 0	 230	 2	 1.05	 0.95;
	 38	 2	 194	 39	 0	 0	 2	 1	 0	 230	 2	 1.05	 0.95;
	 39	 2	 317	 64	 0	 0	 2	 1	 0	 230	 2	 1.05	 0.95;
	 40	 2	 100	 20	 0	 0	 2	 1	 0	 230	 2	 1.05	 0.95;
	 41	 1	 0	 0	 0	 0	 2	 1	 0	 230	 2	 1.05	 0.95;
	 42	 2	 333	 68	 0	 0	 2	 1	 0	 230	 2	 1.05	 0.95;
	 43	 1	 181	 37	 0	 0	 2	 1	 0	 230	 2	 1.05	 0.95;
	 44	 1	 128	 26	 0	 0	 2	 1	 0	 230	 2	 1.05	 0.95;
	 45	 2	 0	 0	 0	 0	 2	 1	 0	 230	 2	 1.05	 0.95;
	 46	 2	 0	 0	 0	 0	 2	 1	 0	 230	 2	 1.05	 0.95;
	 47	 2	 0	 0	 0	 0	 2	 1	 0	 230	 2	 1.05	 0.95;
	 48	 1	 0	 0	 0	 0	 2	 1	 0	 230	 2	 1.05	 0.95;
];

mpc_regionR2.gen = [
%	bus         Pg          Qg          Qmax        Qmin        Vg          mBase       status      Pmax        Pmin        Pc1         Pc2         Qc1min      Qc1max      Qc2min      Qc2max      ramp_agc    ramp_10     ramp_30     ramp_q      apf         
	 1	 18	 5	 10	 0	 1	 100	 1	 20	 16;
	 1	 18	 5	 10	 0	 1	 100	 1	 20	 16;
	 1	 45.6	 2.5	 30	-25	 1	 100	 1	 76	 15.2;
	 1	 45.6	 2.5	 30	-25	 1	 100	 1	 76	 15.2;
	 2	 18	 5	 10	 0	 1	 100	 1	 20	 16;
	 2	 18	 5	 10	 0	 1	 100	 1	 20	 16;
	 2	 45.6	 2.5	 30	-25	 1	 100	 1	 76	 15.2;
	 2	 45.6	 2.5	 30	-25	 1	 100	 1	 76	 15.2;
	 7	 62.5	 30	 60	 0	 1	 100	 1	 100	 25;
	 7	 62.5	 30	 60	 0	 1	 100	 1	 100	 25;
	 7	 62.5	 30	 60	 0	 1	 100	 1	 100	 25;
	 13	 133	 40	 80	 0	 1	 100	 1	 197	 69;
	 13	 133	 40	 80	 0	 1	 100	 1	 197	 69;
	 13	 133	 40	 80	 0	 1	 100	 1	 197	 69;
	 14	 0	 75	 200	-50	 1	 100	 1	 0	 0;
	 15	 7.2	 3	 6	 0	 1	 100	 1	 12	 2.4;
	 15	 7.2	 3	 6	 0	 1	 100	 1	 12	 2.4;
	 15	 7.2	 3	 6	 0	 1	 100	 1	 12	 2.4;
	 15	 7.2	 3	 6	 0	 1	 100	 1	 12	 2.4;
	 15	 7.2	 3	 6	 0	 1	 100	 1	 12	 2.4;
	 15	 104.65	 15	 80	-50	 1	 100	 1	 155	 54.3;
	 16	 104.65	 15	 80	-50	 1	 100	 1	 155	 54.3;
	 18	 250	 75	 200	-50	 1	 100	 1	 400	 100;
	 21	 250	 75	 200	-50	 1	 100	 1	 400	 100;
	 22	 30	 3	 16	-10	 1	 100	 1	 50	 10;
	 22	 30	 3	 16	-10	 1	 100	 1	 50	 10;
	 22	 30	 3	 16	-10	 1	 100	 1	 50	 10;
	 22	 30	 3	 16	-10	 1	 100	 1	 50	 10;
	 22	 30	 3	 16	-10	 1	 100	 1	 50	 10;
	 22	 30	 3	 16	-10	 1	 100	 1	 50	 10;
	 23	 104.65	 15	 80	-50	 1	 100	 1	 155	 54.3;
	 23	 104.65	 15	 80	-50	 1	 100	 1	 155	 54.3;
	 23	 245	 62.5	 150	-25	 1	 100	 1	 350	 140;
	 25	 18	 5	 10	 0	 1	 100	 1	 20	 16;
	 25	 18	 5	 10	 0	 1	 100	 1	 20	 16;
	 25	 45.6	 2.5	 30	-25	 1	 100	 1	 76	 15.2;
	 25	 45.6	 2.5	 30	-25	 1	 100	 1	 76	 15.2;
	 26	 18	 5	 10	 0	 1	 100	 1	 20	 16;
	 26	 18	 5	 10	 0	 1	 100	 1	 20	 16;
	 26	 45.6	 2.5	 30	-25	 1	 100	 1	 76	 15.2;
	 26	 45.6	 2.5	 30	-25	 1	 100	 1	 76	 15.2;
	 31	 62.5	 30	 60	 0	 1	 100	 1	 100	 25;
	 31	 62.5	 30	 60	 0	 1	 100	 1	 100	 25;
	 31	 62.5	 30	 60	 0	 1	 100	 1	 100	 25;
	 37	 133	 40	 80	 0	 1	 100	 1	 197	 69;
	 37	 133	 40	 80	 0	 1	 100	 1	 197	 69;
	 37	 133	 40	 80	 0	 1	 100	 1	 197	 69;
	 38	 0	 75	 200	-50	 1	 100	 1	 0	 0;
	 39	 7.2	 3	 6	 0	 1	 100	 1	 12	 2.4;
	 39	 7.2	 3	 6	 0	 1	 100	 1	 12	 2.4;
	 39	 7.2	 3	 6	 0	 1	 100	 1	 12	 2.4;
	 39	 7.2	 3	 6	 0	 1	 100	 1	 12	 2.4;
	 39	 7.2	 3	 6	 0	 1	 100	 1	 12	 2.4;
	 39	 104.65	 15	 80	-50	 1	 100	 1	 155	 54.3;
	 40	 104.65	 15	 80	-50	 1	 100	 1	 155	 54.3;
	 42	 250	 75	 200	-50	 1	 100	 1	 400	 100;
	 45	 250	 75	 200	-50	 1	 100	 1	 400	 100;
	 46	 30	 3	 16	-10	 1	 100	 1	 50	 10;
	 46	 30	 3	 16	-10	 1	 100	 1	 50	 10;
	 46	 30	 3	 16	-10	 1	 100	 1	 50	 10;
	 46	 30	 3	 16	-10	 1	 100	 1	 50	 10;
	 46	 30	 3	 16	-10	 1	 100	 1	 50	 10;
	 46	 30	 3	 16	-10	 1	 100	 1	 50	 10;
	 47	 104.65	 15	 80	-50	 1	 100	 1	 155	 54.3;
	 47	 104.65	 15	 80	-50	 1	 100	 1	 155	 54.3;
	 47	 245	 62.5	 150	-25	 1	 100	 1	 350	 140;
];

mpc_regionR2.branch = [
%	fbus        tbus        r           x           b           rateA       rateB       rateC       ratio       angle       status      angmin      angmax      
	 1	 2	 0.003	 0.014	 0.461	 175	 193	 200	 0	 0	 1	-30	 30;
	 1	 3	 0.055	 0.211	 0.057	 175	 208	 220	 0	 0	 1	-30	 30;
	 1	 5	 0.022	 0.085	 0.023	 175	 208	 220	 0	 0	 1	-30	 30;
	 2	 4	 0.033	 0.127	 0.034	 175	 208	 220	 0	 0	 1	-30	 30;
	 2	 6	 0.05	 0.192	 0.052	 175	 208	 220	 0	 0	 1	-30	 30;
	 3	 9	 0.031	 0.119	 0.032	 175	 208	 220	 0	 0	 1	-30	 30;
	 3	 24	 0.002	 0.084	 0	 400	 510	 600	 1.015	 0	 1	-30	 30;
	 4	 9	 0.027	 0.104	 0.028	 175	 208	 220	 0	 0	 1	-30	 30;
	 5	 10	 0.023	 0.088	 0.024	 175	 208	 220	 0	 0	 1	-30	 30;
	 6	 10	 0.014	 0.061	 2.459	 175	 193	 200	 0	 0	 1	-30	 30;
	 7	 8	 0.016	 0.061	 0.017	 175	 208	 220	 0	 0	 1	-30	 30;
	 7	 27	 0.042	 0.161	 0.044	 175	 208	 220	 0	 0	 1	-30	 30;
	 8	 9	 0.043	 0.165	 0.045	 175	 208	 220	 0	 0	 1	-30	 30;
	 8	 10	 0.043	 0.165	 0.045	 175	 208	 220	 0	 0	 1	-30	 30;
	 9	 11	 0.002	 0.084	 0	 400	 510	 600	 1.03	 0	 1	-30	 30;
	 9	 12	 0.002	 0.084	 0	 400	 510	 600	 1.03	 0	 1	-30	 30;
	 10	 11	 0.002	 0.084	 0	 400	 510	 600	 1.015	 0	 1	-30	 30;
	 10	 12	 0.002	 0.084	 0	 400	 510	 600	 1.015	 0	 1	-30	 30;
	 11	 13	 0.006	 0.048	 0.1	 500	 600	 625	 0	 0	 1	-30	 30;
	 11	 14	 0.005	 0.042	 0.088	 500	 600	 625	 0	 0	 1	-30	 30;
	 12	 13	 0.006	 0.048	 0.1	 500	 600	 625	 0	 0	 1	-30	 30;
	 12	 23	 0.012	 0.097	 0.203	 500	 600	 625	 0	 0	 1	-30	 30;
	 13	 23	 0.011	 0.087	 0.182	 500	 600	 625	 0	 0	 1	-30	 30;
	 13	 39	 0.01	 0.075	 0.158	 500	 600	 625	 0	 0	 1	-30	 30;
	 14	 16	 0.005	 0.059	 0.082	 500	 600	 625	 0	 0	 1	-30	 30;
	 15	 16	 0.002	 0.017	 0.036	 500	 600	 625	 0	 0	 1	-30	 30;
	 15	 21	 0.006	 0.049	 0.103	 500	 600	 625	 0	 0	 1	-30	 30;
	 15	 21	 0.006	 0.049	 0.103	 500	 600	 625	 0	 0	 1	-30	 30;
	 15	 24	 0.007	 0.052	 0.109	 500	 600	 625	 0	 0	 1	-30	 30;
	 16	 17	 0.003	 0.026	 0.055	 500	 600	 625	 0	 0	 1	-30	 30;
	 16	 19	 0.003	 0.023	 0.049	 500	 600	 625	 0	 0	 1	-30	 30;
	 17	 18	 0.002	 0.014	 0.03	 500	 600	 625	 0	 0	 1	-30	 30;
	 17	 22	 0.014	 0.105	 0.221	 500	 600	 625	 0	 0	 1	-30	 30;
	 18	 21	 0.003	 0.026	 0.055	 500	 600	 625	 0	 0	 1	-30	 30;
	 18	 21	 0.003	 0.026	 0.055	 500	 600	 625	 0	 0	 1	-30	 30;
	 19	 20	 0.005	 0.04	 0.083	 500	 600	 625	 0	 0	 1	-30	 30;
	 19	 20	 0.005	 0.04	 0.083	 500	 600	 625	 0	 0	 1	-30	 30;
	 20	 23	 0.003	 0.022	 0.046	 500	 600	 625	 0	 0	 1	-30	 30;
	 20	 23	 0.003	 0.022	 0.046	 500	 600	 625	 0	 0	 1	-30	 30;
	 21	 22	 0.009	 0.068	 0.142	 500	 600	 625	 0	 0	 1	-30	 30;
	 23	 41	 0.01	 0.074	 0.155	 500	 600	 625	 0	 0	 1	-30	 30;
	 25	 26	 0.003	 0.014	 0.461	 175	 193	 200	 0	 0	 1	-30	 30;
	 25	 27	 0.055	 0.211	 0.057	 175	 208	 220	 0	 0	 1	-30	 30;
	 25	 29	 0.022	 0.085	 0.023	 175	 208	 220	 0	 0	 1	-30	 30;
	 26	 28	 0.033	 0.127	 0.034	 175	 208	 220	 0	 0	 1	-30	 30;
	 26	 30	 0.05	 0.192	 0.052	 175	 208	 220	 0	 0	 1	-30	 30;
	 27	 33	 0.031	 0.119	 0.032	 175	 208	 220	 0	 0	 1	-30	 30;
	 27	 48	 0.002	 0.084	 0	 400	 510	 600	 1.015	 0	 1	-30	 30;
	 28	 33	 0.027	 0.104	 0.028	 175	 208	 220	 0	 0	 1	-30	 30;
	 29	 34	 0.023	 0.088	 0.024	 175	 208	 220	 0	 0	 1	-30	 30;
	 30	 34	 0.014	 0.061	 2.459	 175	 193	 200	 0	 0	 1	-30	 30;
	 31	 32	 0.016	 0.061	 0.017	 175	 208	 220	 0	 0	 1	-30	 30;
	 32	 33	 0.043	 0.165	 0.045	 175	 208	 220	 0	 0	 1	-30	 30;
	 32	 34	 0.043	 0.165	 0.045	 175	 208	 220	 0	 0	 1	-30	 30;
	 33	 35	 0.002	 0.084	 0	 400	 510	 600	 1.03	 0	 1	-30	 30;
	 33	 36	 0.002	 0.084	 0	 400	 510	 600	 1.03	 0	 1	-30	 30;
	 34	 35	 0.002	 0.084	 0	 400	 510	 600	 1.015	 0	 1	-30	 30;
	 34	 36	 0.002	 0.084	 0	 400	 510	 600	 1.015	 0	 1	-30	 30;
	 35	 37	 0.006	 0.048	 0.1	 500	 600	 625	 0	 0	 1	-30	 30;
	 35	 38	 0.005	 0.042	 0.088	 500	 600	 625	 0	 0	 1	-30	 30;
	 36	 37	 0.006	 0.048	 0.1	 500	 600	 625	 0	 0	 1	-30	 30;
	 36	 47	 0.012	 0.097	 0.203	 500	 600	 625	 0	 0	 1	-30	 30;
	 37	 47	 0.011	 0.087	 0.182	 500	 600	 625	 0	 0	 1	-30	 30;
	 38	 40	 0.005	 0.059	 0.082	 500	 600	 625	 0	 0	 1	-30	 30;
	 39	 40	 0.002	 0.017	 0.036	 500	 600	 625	 0	 0	 1	-30	 30;
	 39	 45	 0.006	 0.049	 0.103	 500	 600	 625	 0	 0	 1	-30	 30;
	 39	 45	 0.006	 0.049	 0.103	 500	 600	 625	 0	 0	 1	-30	 30;
	 39	 48	 0.007	 0.052	 0.109	 500	 600	 625	 0	 0	 1	-30	 30;
	 40	 41	 0.003	 0.026	 0.055	 500	 600	 625	 0	 0	 1	-30	 30;
	 40	 43	 0.003	 0.023	 0.049	 500	 600	 625	 0	 0	 1	-30	 30;
	 41	 42	 0.002	 0.014	 0.03	 500	 600	 625	 0	 0	 1	-30	 30;
	 41	 46	 0.014	 0.105	 0.221	 500	 600	 625	 0	 0	 1	-30	 30;
	 42	 45	 0.003	 0.026	 0.055	 500	 600	 625	 0	 0	 1	-30	 30;
	 42	 45	 0.003	 0.026	 0.055	 500	 600	 625	 0	 0	 1	-30	 30;
	 43	 44	 0.005	 0.04	 0.083	 500	 600	 625	 0	 0	 1	-30	 30;
	 43	 44	 0.005	 0.04	 0.083	 500	 600	 625	 0	 0	 1	-30	 30;
	 44	 47	 0.003	 0.022	 0.046	 500	 600	 625	 0	 0	 1	-30	 30;
	 44	 47	 0.003	 0.022	 0.046	 500	 600	 625	 0	 0	 1	-30	 30;
	 45	 46	 0.009	 0.068	 0.142	 500	 600	 625	 0	 0	 1	-30	 30;
];

mpc_regionR2.gencost = [
%	2           startup     shutdown    n           c(n-1)...c0 
	 2	 1500	 0	 3	 0	 130	 400.6849;
	 2	 1500	 0	 3	 0	 130	 400.6849;
	 2	 1500	 0	 3	 0.014142	 16.0811	 212.3076;
	 2	 1500	 0	 3	 0.014142	 16.0811	 212.3076;
	 2	 1500	 0	 3	 0	 130	 400.6849;
	 2	 1500	 0	 3	 0	 130	 400.6849;
	 2	 1500	 0	 3	 0.014142	 16.0811	 212.3076;
	 2	 1500	 0	 3	 0.014142	 16.0811	 212.3076;
	 2	 1500	 0	 3	 0.052672	 43.6615	 781.521;
	 2	 1500	 0	 3	 0.052672	 43.6615	 781.521;
	 2	 1500	 0	 3	 0.052672	 43.6615	 781.521;
	 2	 1500	 0	 3	 0.00717	 48.5804	 832.7575;
	 2	 1500	 0	 3	 0.00717	 48.5804	 832.7575;
	 2	 1500	 0	 3	 0.00717	 48.5804	 832.7575;
	 2	 1500	 0	 3	 0	 0	 0;
	 2	 1500	 0	 3	 0.328412	 56.564	 86.3852;
	 2	 1500	 0	 3	 0.328412	 56.564	 86.3852;
	 2	 1500	 0	 3	 0.328412	 56.564	 86.3852;
	 2	 1500	 0	 3	 0.328412	 56.564	 86.3852;
	 2	 1500	 0	 3	 0.328412	 56.564	 86.3852;
	 2	 1500	 0	 3	 0.008342	 12.3883	 382.2391;
	 2	 1500	 0	 3	 0.008342	 12.3883	 382.2391;
	 2	 1500	 0	 3	 0.000213	 4.4231	 395.3749;
	 2	 1500	 0	 3	 0.000213	 4.4231	 395.3749;
	 2	 1500	 0	 3	 0	 0.001	 0.001;
	 2	 1500	 0	 3	 0	 0.001	 0.001;
	 2	 1500	 0	 3	 0	 0.001	 0.001;
	 2	 1500	 0	 3	 0	 0.001	 0.001;
	 2	 1500	 0	 3	 0	 0.001	 0.001;
	 2	 1500	 0	 3	 0	 0.001	 0.001;
	 2	 1500	 0	 3	 0.008342	 12.3883	 382.2391;
	 2	 1500	 0	 3	 0.008342	 12.3883	 382.2391;
	 2	 1500	 0	 3	 0.004895	 11.8495	 665.1094;
	 2	 1500	 0	 3	 0	 130	 400.6849;
	 2	 1500	 0	 3	 0	 130	 400.6849;
	 2	 1500	 0	 3	 0.014142	 16.0811	 212.3076;
	 2	 1500	 0	 3	 0.014142	 16.0811	 212.3076;
	 2	 1500	 0	 3	 0	 130	 400.6849;
	 2	 1500	 0	 3	 0	 130	 400.6849;
	 2	 1500	 0	 3	 0.014142	 16.0811	 212.3076;
	 2	 1500	 0	 3	 0.014142	 16.0811	 212.3076;
	 2	 1500	 0	 3	 0.052672	 43.6615	 781.521;
	 2	 1500	 0	 3	 0.052672	 43.6615	 781.521;
	 2	 1500	 0	 3	 0.052672	 43.6615	 781.521;
	 2	 1500	 0	 3	 0.00717	 48.5804	 832.7575;
	 2	 1500	 0	 3	 0.00717	 48.5804	 832.7575;
	 2	 1500	 0	 3	 0.00717	 48.5804	 832.7575;
	 2	 1500	 0	 3	 0	 0	 0;
	 2	 1500	 0	 3	 0.328412	 56.564	 86.3852;
	 2	 1500	 0	 3	 0.328412	 56.564	 86.3852;
	 2	 1500	 0	 3	 0.328412	 56.564	 86.3852;
	 2	 1500	 0	 3	 0.328412	 56.564	 86.3852;
	 2	 1500	 0	 3	 0.328412	 56.564	 86.3852;
	 2	 1500	 0	 3	 0.008342	 12.3883	 382.2391;
	 2	 1500	 0	 3	 0.008342	 12.3883	 382.2391;
	 2	 1500	 0	 3	 0.000213	 4.4231	 395.3749;
	 2	 1500	 0	 3	 0.000213	 4.4231	 395.3749;
	 2	 1500	 0	 3	 0	 0.001	 0.001;
	 2	 1500	 0	 3	 0	 0.001	 0.001;
	 2	 1500	 0	 3	 0	 0.001	 0.001;
	 2	 1500	 0	 3	 0	 0.001	 0.001;
	 2	 1500	 0	 3	 0	 0.001	 0.001;
	 2	 1500	 0	 3	 0	 0.001	 0.001;
	 2	 1500	 0	 3	 0.008342	 12.3883	 382.2391;
	 2	 1500	 0	 3	 0.008342	 12.3883	 382.2391;
	 2	 1500	 0	 3	 0.004895	 11.8495	 665.1094;
];


% ---------- Interregional Tie-Line Information ----------
% Each row: {From_Region (string), To_Region (string), Branch_Data (1x13 array)}
% Branch_Data: {fbus, tbus, r, x, b, rateA, rateB, rateC, ratio, angle, status, angmin, angmax}

interregional_tielines_total = {
	{'mpc_regionR1', 'mpc_regionR2', [ 25	 21	 0.012	 0.097	 0.203	 500	 600	 625	 0	 0	 1	-30	 30]},
	{'mpc_regionR1', 'mpc_regionR2', [ 18	 47	 0.013	 0.104	 0.218	 500	 600	 625	 0	 0	 1	-30	 30]},
};

